<?xml version="1.0" encoding="UTF-8"?>

<!-- generated on 2023-11-30 18:08:25.010226 by osmWebWizard.py v1_19_0+0000-baa66a0f364
<configuration>
    <net-file value="C:\Users\lucas\Sumo\2023-11-30-18-08-06\osm.net.xml.gz"/>
    <output-trip-file value="C:\Users\lucas\Sumo\2023-11-30-18-08-06\osm.passenger.trips.xml"/>
    <route-file value="C:\Users\lucas\Sumo\2023-11-30-18-08-06\osm.passenger.rou.xml"/>
    <prefix value="veh"/>
    <trip-attributes value="departLane=&quot;best&quot;"/>
    <fringe-start-attributes value="departSpeed=&quot;max&quot;"/>
    <vehicle-class value="passenger"/>
    <lanes value="True"/>
    <fringe-factor value="5"/>
    <allow-fringe.min-length value="1000.0"/>
    <via-edge-types value="highway.motorway,highway.motorway_link,highway.trunk_link,highway.primary_link,highway.secondary_link,highway.tertiary_link"/>
    <min-distance value="300.0"/>
    <min-distance.fringe value="10.0"/>
    <remove-loops value="True"/>
    <validate value="True"/>
    <insertion-density value="12.0"/>
</configuration>
-->

<!-- generated on 2023-11-30 18:08:24 by Eclipse SUMO duarouter Version 1.19.0
<configuration xmlns:xsi="http://www.w3.org/2001/XMLSchema-instance" xsi:noNamespaceSchemaLocation="http://sumo.dlr.de/xsd/duarouterConfiguration.xsd">

    <input>
        <net-file value="C:\Users\lucas\Sumo\2023-11-30-18-08-06\osm.net.xml.gz"/>
        <route-files value="C:\Users\lucas\Sumo\2023-11-30-18-08-06\osm.passenger.trips.xml"/>
    </input>

    <output>
        <output-file value="C:\Users\lucas\Sumo\2023-11-30-18-08-06\osm.passenger.trips.xml.tmp"/>
        <alternatives-output value="NUL"/>
        <write-trips value="true"/>
    </output>

    <processing>
        <remove-loops value="true"/>
    </processing>

    <time>
        <begin value="0.0"/>
        <end value="3600.0"/>
    </time>

    <report>
        <no-warnings value="true"/>
        <ignore-errors value="true"/>
        <no-step-log value="true"/>
    </report>

</configuration>
-->

<routes xmlns:xsi="http://www.w3.org/2001/XMLSchema-instance" xsi:noNamespaceSchemaLocation="http://sumo.dlr.de/xsd/routes_file.xsd">
    <vType id="veh_passenger" vClass="passenger"/>
    <trip id="veh0" type="veh_passenger" depart="0.00" departLane="best" departSpeed="max" from="-6359397" to="-6369568"/>
    <trip id="veh1" type="veh_passenger" depart="2.04" departLane="best" departSpeed="max" from="6331405" to="6335325"/>
    <trip id="veh2" type="veh_passenger" depart="4.08" departLane="best" from="-6369564#0" to="-6334303#0"/>
    <trip id="veh5" type="veh_passenger" depart="10.21" departLane="best" departSpeed="max" from="417221043" to="417224814"/>
    <trip id="veh6" type="veh_passenger" depart="12.25" departLane="best" departSpeed="max" from="-6345100#1" to="546084596#0"/>
    <trip id="veh7" type="veh_passenger" depart="14.29" departLane="best" departSpeed="max" from="6343932#0" to="1123811087#6"/>
    <trip id="veh8" type="veh_passenger" depart="16.33" departLane="best" departSpeed="max" from="6343693#0" to="6338204"/>
    <trip id="veh9" type="veh_passenger" depart="18.37" departLane="best" from="6379430#2" to="6346078#1"/>
    <trip id="veh10" type="veh_passenger" depart="20.41" departLane="best" departSpeed="max" from="6397386" to="1085743968#0"/>
    <trip id="veh11" type="veh_passenger" depart="22.45" departLane="best" departSpeed="max" from="-6323265" to="-6334608#0"/>
    <trip id="veh12" type="veh_passenger" depart="24.50" departLane="best" departSpeed="max" from="6352947" to="574290568#0"/>
    <trip id="veh13" type="veh_passenger" depart="26.54" departLane="best" departSpeed="max" from="6343915" to="6343006"/>
    <trip id="veh15" type="veh_passenger" depart="30.62" departLane="best" from="6387851" to="417694095#0"/>
    <trip id="veh16" type="veh_passenger" depart="32.66" departLane="best" from="6346774" to="6327112#0"/>
    <trip id="veh17" type="veh_passenger" depart="34.70" departLane="best" from="6364872#1" to="544466880#0"/>
    <trip id="veh18" type="veh_passenger" depart="36.74" departLane="best" from="546084595#2" to="-575453915#4"/>
    <trip id="veh19" type="veh_passenger" depart="38.79" departLane="best" departSpeed="max" from="-6345925" to="-6398677"/>
    <trip id="veh21" type="veh_passenger" depart="42.87" departLane="best" departSpeed="max" from="-6327483" to="-6395992#2"/>
    <trip id="veh22" type="veh_passenger" depart="44.91" departLane="best" departSpeed="max" from="417220881#0" to="125052056#1"/>
    <trip id="veh23" type="veh_passenger" depart="46.95" departLane="best" from="6386391#0" to="-6367338#4"/>
    <trip id="veh24" type="veh_passenger" depart="48.99" departLane="best" departSpeed="max" from="-6356957" to="6399277"/>
    <trip id="veh25" type="veh_passenger" depart="51.03" departLane="best" departSpeed="max" from="-6338101" to="6343006"/>
    <trip id="veh26" type="veh_passenger" depart="53.07" departLane="best" departSpeed="max" from="-6336708" to="241729797#0"/>
    <trip id="veh27" type="veh_passenger" depart="55.12" departLane="best" from="1181272771#0" to="6329865#1"/>
    <trip id="veh28" type="veh_passenger" depart="57.16" departLane="best" from="389640364#1" to="6335697#13"/>
    <trip id="veh30" type="veh_passenger" depart="61.24" departLane="best" departSpeed="max" from="-6346444" to="-38019432#0"/>
    <trip id="veh31" type="veh_passenger" depart="63.28" departLane="best" from="6367338#7" to="-6387964#0"/>
    <trip id="veh32" type="veh_passenger" depart="65.32" departLane="best" from="-6343069" to="6400263"/>
    <trip id="veh33" type="veh_passenger" depart="67.36" departLane="best" from="6367338#16" to="-693449619"/>
    <trip id="veh34" type="veh_passenger" depart="69.41" departLane="best" from="417224787#0" to="258988648#1"/>
    <trip id="veh35" type="veh_passenger" depart="71.45" departLane="best" departSpeed="max" from="6379471#0" to="389640605"/>
    <trip id="veh36" type="veh_passenger" depart="73.49" departLane="best" departSpeed="max" from="-6354422" to="-6381180"/>
    <trip id="veh37" type="veh_passenger" depart="75.53" departLane="best" from="417099210#0" to="-6386696#0"/>
    <trip id="veh38" type="veh_passenger" depart="77.57" departLane="best" from="417106206#0" to="6385307#2"/>
    <trip id="veh39" type="veh_passenger" depart="79.61" departLane="best" departSpeed="max" from="-6395055" to="6369008#1"/>
    <trip id="veh40" type="veh_passenger" depart="81.65" departLane="best" departSpeed="max" from="841991762" to="417211310"/>
    <trip id="veh41" type="veh_passenger" depart="83.69" departLane="best" departSpeed="max" from="-6323265" to="618721973#2"/>
    <trip id="veh42" type="veh_passenger" depart="85.74" departLane="best" from="-6328887#0" to="6328222#2"/>
    <trip id="veh43" type="veh_passenger" depart="87.78" departLane="best" departSpeed="max" from="6339806" to="351676043"/>
    <trip id="veh44" type="veh_passenger" depart="89.82" departLane="best" from="-544466879#3" to="356864450#0"/>
    <trip id="veh45" type="veh_passenger" depart="91.86" departLane="best" from="838870414" to="417220860"/>
    <trip id="veh46" type="veh_passenger" depart="93.90" departLane="best" from="-6404184#3" to="6376993#0"/>
    <trip id="veh47" type="veh_passenger" depart="95.94" departLane="best" departSpeed="max" from="-125052056#1" to="6341717"/>
    <trip id="veh48" type="veh_passenger" depart="97.98" departLane="best" departSpeed="max" from="417707497" to="417220989"/>
    <trip id="veh49" type="veh_passenger" depart="100.03" departLane="best" departSpeed="max" from="-6356957" to="6329865#3"/>
    <trip id="veh50" type="veh_passenger" depart="102.07" departLane="best" from="-6329067#0" to="356864442#0"/>
    <trip id="veh51" type="veh_passenger" depart="104.11" departLane="best" departSpeed="max" from="-734417937" to="6402822"/>
    <trip id="veh52" type="veh_passenger" depart="106.15" departLane="best" from="6367338#14" to="-6386696#0"/>
    <trip id="veh53" type="veh_passenger" depart="108.19" departLane="best" departSpeed="max" from="125052056#0" to="-6352947"/>
    <trip id="veh54" type="veh_passenger" depart="110.23" departLane="best" from="6379430#2" to="6380265#1"/>
    <trip id="veh55" type="veh_passenger" depart="112.27" departLane="best" departSpeed="max" from="-6365468" to="6329546"/>
    <trip id="veh56" type="veh_passenger" depart="114.31" departLane="best" from="417114146#0" to="-6345332"/>
    <trip id="veh57" type="veh_passenger" depart="116.36" departLane="best" departSpeed="max" from="6334479#0" to="574286668"/>
    <trip id="veh58" type="veh_passenger" depart="118.40" departLane="best" from="-6337961#2" to="417220876"/>
    <trip id="veh59" type="veh_passenger" depart="120.44" departLane="best" from="-1030285514#2" to="-838870415#1"/>
    <trip id="veh60" type="veh_passenger" depart="122.48" departLane="best" departSpeed="max" from="-238530870#8" to="-6395992#2"/>
    <trip id="veh61" type="veh_passenger" depart="124.52" departLane="best" from="6367338#2" to="6366142#3"/>
    <trip id="veh62" type="veh_passenger" depart="126.56" departLane="best" from="-6367338#10" to="6329546"/>
    <trip id="veh63" type="veh_passenger" depart="128.60" departLane="best" from="-6367338#19" to="6400989"/>
    <trip id="veh64" type="veh_passenger" depart="130.65" departLane="best" departSpeed="max" from="-618721976#2" to="1216786254"/>
    <trip id="veh65" type="veh_passenger" depart="132.69" departLane="best" from="-546084588#0" to="6346695"/>
    <trip id="veh66" type="veh_passenger" depart="134.73" departLane="best" departSpeed="max" from="6334608#0" to="6360004"/>
    <trip id="veh68" type="veh_passenger" depart="138.81" departLane="best" departSpeed="max" from="-6354422" to="6380767"/>
    <trip id="veh69" type="veh_passenger" depart="140.85" departLane="best" departSpeed="max" from="-6402486" to="-6367388#1"/>
    <trip id="veh70" type="veh_passenger" depart="142.89" departLane="best" from="356864438#3" to="6343006"/>
    <trip id="veh71" type="veh_passenger" depart="144.93" departLane="best" departSpeed="max" from="-6342122" to="-6407896"/>
    <trip id="veh72" type="veh_passenger" depart="146.98" departLane="best" from="-758894634#0" to="6330903"/>
    <trip id="veh73" type="veh_passenger" depart="149.02" departLane="best" departSpeed="max" from="-6406694" to="417212294"/>
    <trip id="veh74" type="veh_passenger" depart="151.06" departLane="best" departSpeed="max" from="-6330384#1" to="-6370117#1"/>
    <trip id="veh75" type="veh_passenger" depart="153.10" departLane="best" departSpeed="max" from="-6377991" to="546084595#0"/>
    <trip id="veh76" type="veh_passenger" depart="155.14" departLane="best" from="546084588#5" to="6328739"/>
    <trip id="veh78" type="veh_passenger" depart="159.22" departLane="best" departSpeed="max" from="6364410#0" to="-6331524"/>
    <trip id="veh79" type="veh_passenger" depart="161.27" departLane="best" from="-6347165#1" to="6334479#1"/>
    <trip id="veh80" type="veh_passenger" depart="163.31" departLane="best" departSpeed="max" from="-6344817" to="6343048#3"/>
    <trip id="veh81" type="veh_passenger" depart="165.35" departLane="best" departSpeed="max" from="6386696#0" to="516303451"/>
    <trip id="veh82" type="veh_passenger" depart="167.39" departLane="best" departSpeed="max" from="1015155096#0" to="6349063"/>
    <trip id="veh84" type="veh_passenger" depart="171.47" departLane="best" departSpeed="max" from="-6327182" to="356864441"/>
    <trip id="veh85" type="veh_passenger" depart="173.51" departLane="best" departSpeed="max" from="-6402486" to="417099224"/>
    <trip id="veh86" type="veh_passenger" depart="175.55" departLane="best" from="6330384#0" to="-6334608#1"/>
    <trip id="veh87" type="veh_passenger" depart="177.60" departLane="best" departSpeed="max" from="6407896" to="-6334608#0"/>
    <trip id="veh88" type="veh_passenger" depart="179.64" departLane="best" from="-6395992#3" to="1123811087#4"/>
    <trip id="veh89" type="veh_passenger" depart="181.68" departLane="best" from="-6364872#1" to="-6382138#2"/>
    <trip id="veh90" type="veh_passenger" depart="183.72" departLane="best" departSpeed="max" from="-6341676" to="38019432#1"/>
    <trip id="veh91" type="veh_passenger" depart="185.76" departLane="best" from="-6402469#4" to="-6395992#3"/>
    <trip id="veh92" type="veh_passenger" depart="187.80" departLane="best" departSpeed="max" from="-6348086#2" to="6394558"/>
    <trip id="veh93" type="veh_passenger" depart="189.84" departLane="best" departSpeed="max" from="-6407671" to="6376993#1"/>
    <trip id="veh94" type="veh_passenger" depart="191.89" departLane="best" from="360786206#2" to="-6325906"/>
    <trip id="veh95" type="veh_passenger" depart="193.93" departLane="best" departSpeed="max" from="841991762" to="6367338#12"/>
    <trip id="veh96" type="veh_passenger" depart="195.97" departLane="best" from="-6403451#2" to="6395055"/>
    <trip id="veh97" type="veh_passenger" depart="198.01" departLane="best" from="6359380#0" to="-6347619"/>
    <trip id="veh98" type="veh_passenger" depart="200.05" departLane="best" from="1181272755#1" to="-6367906"/>
    <trip id="veh99" type="veh_passenger" depart="202.09" departLane="best" from="6395992#0" to="6329865#1"/>
    <trip id="veh100" type="veh_passenger" depart="204.13" departLane="best" from="6387964#1" to="744845509#1"/>
    <trip id="veh101" type="veh_passenger" depart="206.17" departLane="best" departSpeed="max" from="-6354422" to="6349063"/>
    <trip id="veh102" type="veh_passenger" depart="208.22" departLane="best" from="744845509#0" to="351676043"/>
    <trip id="veh103" type="veh_passenger" depart="210.26" departLane="best" from="6397857#0" to="841991760"/>
    <trip id="veh104" type="veh_passenger" depart="212.30" departLane="best" from="38019432#0" to="6341717"/>
    <trip id="veh105" type="veh_passenger" depart="214.34" departLane="best" departSpeed="max" from="-6335458#1" to="-6403451#1"/>
    <trip id="veh106" type="veh_passenger" depart="216.38" departLane="best" from="6403451#1" to="544466880#1"/>
    <trip id="veh107" type="veh_passenger" depart="218.42" departLane="best" from="356864439#1" to="6345358#0"/>
    <trip id="veh108" type="veh_passenger" depart="220.46" departLane="best" departSpeed="max" from="-389640605" to="546084589#1"/>
    <trip id="veh110" type="veh_passenger" depart="224.55" departLane="best" from="-6335697#12" to="6404184#1"/>
    <trip id="veh111" type="veh_passenger" depart="226.59" departLane="best" departSpeed="max" from="-574290564" to="6360130#1"/>
    <trip id="veh112" type="veh_passenger" depart="228.63" departLane="best" from="417106707" to="6334777"/>
    <trip id="veh113" type="veh_passenger" depart="230.67" departLane="best" departSpeed="max" from="-6347004#1" to="-6339524"/>
    <trip id="veh114" type="veh_passenger" depart="232.71" departLane="best" from="-6369008#1" to="-6381180"/>
    <trip id="veh115" type="veh_passenger" depart="234.75" departLane="best" from="417106707" to="6327182"/>
    <trip id="veh116" type="veh_passenger" depart="236.79" departLane="best" departSpeed="max" from="-6400989" to="546084588#5"/>
    <trip id="veh117" type="veh_passenger" depart="238.84" departLane="best" from="258988646#2" to="-6397857#0"/>
    <trip id="veh118" type="veh_passenger" depart="240.88" departLane="best" departSpeed="max" from="-6343006" to="6341676"/>
    <trip id="veh119" type="veh_passenger" depart="242.92" departLane="best" from="-6347165#2" to="258988648#1"/>
    <trip id="veh120" type="veh_passenger" depart="244.96" departLane="best" from="417706250" to="6404184#4"/>
    <trip id="veh121" type="veh_passenger" depart="247.00" departLane="best" from="6367388#0" to="6345414"/>
    <trip id="veh122" type="veh_passenger" depart="249.04" departLane="best" departSpeed="max" from="-546084592" to="389640605"/>
    <trip id="veh123" type="veh_passenger" depart="251.08" departLane="best" departSpeed="max" from="-546084592" to="-6367906"/>
    <trip id="veh124" type="veh_passenger" depart="253.13" departLane="best" departSpeed="max" from="-6354422" to="6396225#1"/>
    <trip id="veh125" type="veh_passenger" depart="255.17" departLane="best" from="6367338#6" to="6382488"/>
    <trip id="veh126" type="veh_passenger" depart="257.21" departLane="best" from="6385307#5" to="-6346551#0"/>
    <trip id="veh127" type="veh_passenger" depart="259.25" departLane="best" departSpeed="max" from="6347619" to="6339033"/>
    <trip id="veh128" type="veh_passenger" depart="261.29" departLane="best" from="356864435" to="744845510"/>
    <trip id="veh129" type="veh_passenger" depart="263.33" departLane="best" from="417224753#0" to="-125052053"/>
    <trip id="veh130" type="veh_passenger" depart="265.37" departLane="best" departSpeed="max" from="6345301" to="6404184#1"/>
    <trip id="veh131" type="veh_passenger" depart="267.41" departLane="best" departSpeed="max" from="417619406#0" to="6399922"/>
    <trip id="veh132" type="veh_passenger" depart="269.46" departLane="best" from="-6332298#4" to="-6338874#1"/>
    <trip id="veh133" type="veh_passenger" depart="271.50" departLane="best" departSpeed="max" from="-6328739" to="417694095#0-AddedOffRampEdge"/>
    <trip id="veh134" type="veh_passenger" depart="273.54" departLane="best" departSpeed="max" from="-6359346" to="575453915#1"/>
    <trip id="veh135" type="veh_passenger" depart="275.58" departLane="best" departSpeed="max" from="6325906" to="6367338#11"/>
    <trip id="veh136" type="veh_passenger" depart="277.62" departLane="best" departSpeed="max" from="417220881#0" to="-6386696#0"/>
    <trip id="veh138" type="veh_passenger" depart="281.70" departLane="best" departSpeed="max" from="6352947" to="-6334478#0"/>
    <trip id="veh139" type="veh_passenger" depart="283.75" departLane="best" departSpeed="max" from="-6402486" to="6395992#0"/>
    <trip id="veh140" type="veh_passenger" depart="285.79" departLane="best" from="-1123811087#6" to="6347468"/>
    <trip id="veh141" type="veh_passenger" depart="287.83" departLane="best" departSpeed="max" from="417220881#0" to="-6386391#3"/>
    <trip id="veh142" type="veh_passenger" depart="289.87" departLane="best" departSpeed="max" from="6332035" to="417694095#0"/>
    <trip id="veh144" type="veh_passenger" depart="293.95" departLane="best" departSpeed="max" from="-556454288#1" to="6383194"/>
    <trip id="veh145" type="veh_passenger" depart="295.99" departLane="best" departSpeed="max" from="6373126#0" to="417224814"/>
    <trip id="veh146" type="veh_passenger" depart="298.04" departLane="best" departSpeed="max" from="6347619" to="546084588#1"/>
    <trip id="veh147" type="veh_passenger" depart="300.08" departLane="best" from="-6334608#1" to="-6340546#4"/>
    <trip id="veh148" type="veh_passenger" depart="302.12" departLane="best" from="-6367338#11" to="-6385307#5"/>
    <trip id="veh149" type="veh_passenger" depart="304.16" departLane="best" from="-6340546#5" to="6376993#0"/>
    <trip id="veh150" type="veh_passenger" depart="306.20" departLane="best" from="6371053#2" to="-6367338#5"/>
    <trip id="veh151" type="veh_passenger" depart="308.24" departLane="best" departSpeed="max" from="-6348086#2" to="6335697#15"/>
    <trip id="veh152" type="veh_passenger" depart="310.28" departLane="best" departSpeed="max" from="6338049" to="6383194"/>
    <trip id="veh153" type="veh_passenger" depart="312.32" departLane="best" departSpeed="max" from="-6396225#1" to="6327182"/>
    <trip id="veh154" type="veh_passenger" depart="314.37" departLane="best" from="6365297#4" to="693449620#2"/>
    <trip id="veh155" type="veh_passenger" depart="316.41" departLane="best" departSpeed="max" from="6343932#0" to="-6382496"/>
    <trip id="veh157" type="veh_passenger" depart="320.49" departLane="best" from="-6376993#2" to="-6395992#5"/>
    <trip id="veh158" type="veh_passenger" depart="322.53" departLane="best" from="-6343055#8" to="6377497"/>
    <trip id="veh159" type="veh_passenger" depart="324.57" departLane="best" departSpeed="max" from="6343932#0" to="-6387851"/>
    <trip id="veh160" type="veh_passenger" depart="326.61" departLane="best" departSpeed="max" from="6339408" to="-6338049"/>
    <trip id="veh162" type="veh_passenger" depart="330.70" departLane="best" from="-758894634#0" to="-6406523#0"/>
    <trip id="veh163" type="veh_passenger" depart="332.74" departLane="best" from="6340546#3" to="6371053#1"/>
    <trip id="veh165" type="veh_passenger" depart="336.82" departLane="best" departSpeed="max" from="-6373126#1" to="6377497"/>
    <trip id="veh166" type="veh_passenger" depart="338.86" departLane="best" from="-6402469#4" to="-6395992#4"/>
    <trip id="veh167" type="veh_passenger" depart="340.90" departLane="best" from="417220909#0" to="262778905#0"/>
    <trip id="veh168" type="veh_passenger" depart="342.94" departLane="best" departSpeed="max" from="6407657" to="417220976"/>
    <trip id="veh169" type="veh_passenger" depart="344.99" departLane="best" departSpeed="max" from="6387964#0" to="-6338874#1"/>
    <trip id="veh170" type="veh_passenger" depart="347.03" departLane="best" from="-6403451#5" to="-6352947"/>
    <trip id="veh171" type="veh_passenger" depart="349.07" departLane="best" from="6400270" to="6386855#0"/>
    <trip id="veh172" type="veh_passenger" depart="351.11" departLane="best" departSpeed="max" from="-6328739" to="356864442#0"/>
    <trip id="veh173" type="veh_passenger" depart="353.15" departLane="best" from="6329865#5" to="-693449619"/>
    <trip id="veh174" type="veh_passenger" depart="355.19" departLane="best" from="417108079" to="417211358"/>
    <trip id="veh175" type="veh_passenger" depart="357.23" departLane="best" departSpeed="max" from="-6391679#1" to="544466879#4"/>
    <trip id="veh176" type="veh_passenger" depart="359.28" departLane="best" departSpeed="max" from="-6348620" to="6340058"/>
    <trip id="veh177" type="veh_passenger" depart="361.32" departLane="best" from="-1123811087#2" to="6395055"/>
    <trip id="veh178" type="veh_passenger" depart="363.36" departLane="best" from="356864438#2" to="6341717"/>
    <trip id="veh179" type="veh_passenger" depart="365.40" departLane="best" departSpeed="max" from="6332035" to="6334479#1"/>
    <trip id="veh180" type="veh_passenger" depart="367.44" departLane="best" departSpeed="max" from="-6385168" to="-6331468#2"/>
    <trip id="veh181" type="veh_passenger" depart="369.48" departLane="best" departSpeed="max" from="417619406#0" to="1085743966#1"/>
    <trip id="veh182" type="veh_passenger" depart="371.52" departLane="best" from="6367338#4" to="6369562"/>
    <trip id="veh183" type="veh_passenger" depart="373.56" departLane="best" from="240347210#0" to="6405192"/>
    <trip id="veh184" type="veh_passenger" depart="375.61" departLane="best" from="6367338#13" to="319448650"/>
    <trip id="veh185" type="veh_passenger" depart="377.65" departLane="best" from="6395992#3" to="-6402469#5"/>
    <trip id="veh187" type="veh_passenger" depart="381.73" departLane="best" departSpeed="max" from="6387964#0" to="6335325"/>
    <trip id="veh188" type="veh_passenger" depart="383.77" departLane="best" departSpeed="max" from="6373126#0" to="6323265"/>
    <trip id="veh189" type="veh_passenger" depart="385.81" departLane="best" departSpeed="max" from="-6365573" to="417616842#3"/>
    <trip id="veh190" type="veh_passenger" depart="387.85" departLane="best" from="417224753#0" to="417099210#1"/>
    <trip id="veh191" type="veh_passenger" depart="389.90" departLane="best" departSpeed="max" from="-6407671" to="-6367906"/>
    <trip id="veh192" type="veh_passenger" depart="391.94" departLane="best" departSpeed="max" from="1015155096#0" to="6386696#1"/>
    <trip id="veh193" type="veh_passenger" depart="393.98" departLane="best" from="-6340546#5" to="6349068#1"/>
    <trip id="veh194" type="veh_passenger" depart="396.02" departLane="best" departSpeed="max" from="-618721976#2" to="417212270"/>
    <trip id="veh196" type="veh_passenger" depart="400.10" departLane="best" departSpeed="max" from="6345301" to="6345414"/>
    <trip id="veh197" type="veh_passenger" depart="402.14" departLane="best" from="417706792#0" to="-6370117#1"/>
    <trip id="veh198" type="veh_passenger" depart="404.18" departLane="best" departSpeed="max" from="-6342050" to="317886703#0"/>
    <trip id="veh199" type="veh_passenger" depart="406.23" departLane="best" departSpeed="max" from="-6347468" to="417100144#0"/>
    <trip id="veh201" type="veh_passenger" depart="410.31" departLane="best" from="6399981#1" to="6328222#3"/>
    <trip id="veh202" type="veh_passenger" depart="412.35" departLane="best" departSpeed="max" from="-6341717" to="6338101"/>
    <trip id="veh203" type="veh_passenger" depart="414.39" departLane="best" from="1181272778" to="-6380265#0"/>
    <trip id="veh204" type="veh_passenger" depart="416.43" departLane="best" from="417224787#0" to="1123811087#5"/>
    <trip id="veh205" type="veh_passenger" depart="418.47" departLane="best" departSpeed="max" from="-6328222#3" to="356864437#0"/>
    <trip id="veh206" type="veh_passenger" depart="420.52" departLane="best" from="-6338874#0" to="6403451#0"/>
    <trip id="veh207" type="veh_passenger" depart="422.56" departLane="best" from="242796004#0" to="-6325906"/>
    <trip id="veh208" type="veh_passenger" depart="424.60" departLane="best" departSpeed="max" from="-6348086#2" to="6369562"/>
    <trip id="veh209" type="veh_passenger" depart="426.64" departLane="best" departSpeed="max" from="-744845510" to="-6359394#1"/>
    <trip id="veh210" type="veh_passenger" depart="428.68" departLane="best" from="417694095#0-AddedOffRampEdge" to="744845510"/>
    <trip id="veh211" type="veh_passenger" depart="430.72" departLane="best" from="417106707" to="6402486"/>
    <trip id="veh212" type="veh_passenger" depart="432.76" departLane="best" from="6369562" to="628751283"/>
    <trip id="veh213" type="veh_passenger" depart="434.80" departLane="best" from="-6328222#2" to="417108111#0"/>
    <trip id="veh214" type="veh_passenger" depart="436.85" departLane="best" from="-6347165#1" to="417616842#3"/>
    <trip id="veh215" type="veh_passenger" depart="438.89" departLane="best" departSpeed="max" from="6370117#0" to="6344864"/>
    <trip id="veh216" type="veh_passenger" depart="440.93" departLane="best" from="1074106313" to="-6385565"/>
    <trip id="veh217" type="veh_passenger" depart="442.97" departLane="best" departSpeed="max" from="-6347517" to="6329067#1"/>
    <trip id="veh218" type="veh_passenger" depart="445.01" departLane="best" departSpeed="max" from="6334608#0" to="417214589"/>
    <trip id="veh219" type="veh_passenger" depart="447.05" departLane="best" from="417214607" to="-6391679#0"/>
    <trip id="veh220" type="veh_passenger" depart="449.09" departLane="best" from="-569761037#1" to="-6397857#0"/>
    <trip id="veh221" type="veh_passenger" depart="451.14" departLane="best" departSpeed="max" from="-6359346" to="744845511"/>
    <trip id="veh222" type="veh_passenger" depart="453.18" departLane="best" from="356864438#3" to="-6343693#2"/>
    <trip id="veh223" type="veh_passenger" depart="455.22" departLane="best" departSpeed="max" from="-6346444" to="6337961#0"/>
    <trip id="veh224" type="veh_passenger" depart="457.26" departLane="best" from="546084596#1" to="-6331035"/>
    <trip id="veh225" type="veh_passenger" depart="459.30" departLane="best" from="6397857#0" to="417224753#0"/>
    <trip id="veh226" type="veh_passenger" depart="461.34" departLane="best" departSpeed="max" from="-6400263" to="6367338#18"/>
    <trip id="veh228" type="veh_passenger" depart="465.42" departLane="best" from="417106206#0" to="6338101"/>
    <trip id="veh229" type="veh_passenger" depart="467.47" departLane="best" from="6362327" to="6347165#3"/>
    <trip id="veh230" type="veh_passenger" depart="469.51" departLane="best" from="-6389778#0" to="1123811087#5"/>
    <trip id="veh231" type="veh_passenger" depart="471.55" departLane="best" from="6382496" to="6345925"/>
    <trip id="veh232" type="veh_passenger" depart="473.59" departLane="best" from="6360004" to="6402822"/>
    <trip id="veh233" type="veh_passenger" depart="475.63" departLane="best" departSpeed="max" from="-6400989" to="6345100#0"/>
    <trip id="veh234" type="veh_passenger" depart="477.67" departLane="best" from="356864450#1" to="574290568#0"/>
    <trip id="veh235" type="veh_passenger" depart="479.71" departLane="best" departSpeed="max" from="-6345100#1" to="-6369008#1"/>
    <trip id="veh236" type="veh_passenger" depart="481.76" departLane="best" from="6406523#2" to="-37416247#1"/>
    <trip id="veh238" type="veh_passenger" depart="485.84" departLane="best" departSpeed="max" from="-6396225#1" to="-6347619"/>
    <trip id="veh239" type="veh_passenger" depart="487.88" departLane="best" departSpeed="max" from="-841991760" to="6340546#5"/>
    <trip id="veh240" type="veh_passenger" depart="489.92" departLane="best" from="417214455" to="-321242674#1"/>
    <trip id="veh241" type="veh_passenger" depart="491.96" departLane="best" departSpeed="max" from="-6394177" to="574288705"/>
    <trip id="veh243" type="veh_passenger" depart="496.04" departLane="best" departSpeed="max" from="-6332865" to="319668053#0"/>
    <trip id="veh244" type="veh_passenger" depart="498.09" departLane="best" departSpeed="max" from="-389640363" to="240349222"/>
    <trip id="veh245" type="veh_passenger" depart="500.13" departLane="best" from="-6343693#2" to="-1015155091#1"/>
    <trip id="veh246" type="veh_passenger" depart="502.17" departLane="best" departSpeed="max" from="6334478#0" to="240349222"/>
    <trip id="veh247" type="veh_passenger" depart="504.21" departLane="best" from="6333983" to="6366142#4"/>
    <trip id="veh248" type="veh_passenger" depart="506.25" departLane="best" departSpeed="max" from="-6348136#4" to="-6332298#2"/>
    <trip id="veh249" type="veh_passenger" depart="508.29" departLane="best" departSpeed="max" from="-238530870#8" to="574286668"/>
    <trip id="veh250" type="veh_passenger" depart="510.33" departLane="best" departSpeed="max" from="841991762" to="1181272764"/>